Version 4
SHEET 1 1112 680
WIRE 192 32 32 32
WIRE 704 32 256 32
WIRE -352 144 -512 144
WIRE -256 144 -272 144
WIRE -48 144 -256 144
WIRE 32 144 32 32
WIRE 32 144 -48 144
WIRE 160 144 32 144
WIRE 608 144 288 144
WIRE 704 144 704 32
WIRE 704 144 608 144
WIRE 784 144 704 144
WIRE 848 144 784 144
WIRE 1072 144 848 144
WIRE -512 224 -512 144
WIRE -256 224 -256 144
WIRE -48 224 -48 144
WIRE 224 224 224 192
WIRE 224 224 208 224
WIRE 608 224 224 224
WIRE 784 224 784 208
WIRE 784 224 608 224
WIRE 1072 240 1072 144
WIRE 208 272 208 224
WIRE 208 272 160 272
WIRE 576 272 208 272
WIRE 784 272 784 224
WIRE -48 320 -48 288
WIRE -512 400 -512 304
WIRE -256 400 -256 288
WIRE -256 400 -512 400
WIRE -48 400 -256 400
WIRE 32 400 32 208
WIRE 32 400 -48 400
WIRE 160 400 160 368
WIRE 224 400 224 288
WIRE 288 400 288 288
WIRE 384 400 384 368
WIRE 480 400 480 368
WIRE 576 400 576 368
WIRE 784 400 784 336
WIRE 848 400 848 208
WIRE 848 400 784 400
WIRE 1072 400 1072 320
WIRE 1072 400 848 400
WIRE 32 528 32 400
WIRE 160 528 160 480
WIRE 160 528 32 528
WIRE 224 528 224 480
WIRE 224 528 160 528
WIRE 288 528 288 480
WIRE 288 528 224 528
WIRE 384 528 384 480
WIRE 384 528 288 528
WIRE 480 528 480 480
WIRE 480 528 384 528
WIRE 576 528 576 480
WIRE 576 528 480 528
WIRE 784 528 784 400
WIRE 784 528 576 528
WIRE 288 576 288 528
FLAG 288 576 0
SYMBOL Misc\\LM317 224 144 R0
SYMATTR InstName U1
SYMBOL diode 256 16 R90
WINDOW 0 0 32 VBottom 2
WINDOW 3 53 30 VBottom 2
SYMATTR InstName D1
SYMATTR Value 1N4007
SYMBOL polcap 16 144 R0
WINDOW 3 24 56 Left 2
SYMATTR Value 0.1µ
SYMATTR InstName C1
SYMATTR Description Capacitor
SYMATTR Type cap
SYMATTR SpiceLine V=50 Irms=0 Rser=11 Lser=0
SYMBOL polcap 832 144 R0
WINDOW 3 43 38 Left 2
SYMATTR Value 1µ
SYMATTR InstName C2
SYMATTR Description Capacitor
SYMATTR Type cap
SYMATTR SpiceLine V=50 Irms=0 Rser=11 Lser=0
SYMBOL polcap 768 272 R0
WINDOW 3 24 56 Left 2
SYMATTR Value 10µ
SYMATTR InstName C3
SYMATTR Description Capacitor
SYMATTR Type cap
SYMATTR SpiceLine V=50 Irms=1.36931 Rser=0.12 Lser=0 mfg="KEMET" pn="T521D106M050ATE120" type="Tantalum"
SYMBOL res 592 128 R0
SYMATTR InstName R1
SYMATTR Value 240
SYMATTR SpiceLine tol=1 pwr=0.25
SYMBOL diode 800 208 R180
WINDOW 0 24 64 Left 2
WINDOW 3 24 36 Left 2
SYMATTR InstName D2
SYMATTR Value 1N4007
SYMBOL res 560 272 R0
SYMATTR InstName VR1
SYMATTR Value 10k
SYMATTR SpiceLine tol=1 pwr=0.25
SYMBOL LED -64 224 R0
SYMATTR InstName LED1
SYMATTR Value ""
SYMATTR Description Diode
SYMATTR Type diode
SYMBOL res -64 304 R0
SYMATTR InstName R2
SYMATTR Value 3.6K
SYMATTR SpiceLine tol=1 pwr=0.1
SYMBOL res -256 128 R90
WINDOW 0 0 56 VBottom 2
WINDOW 3 32 56 VTop 2
SYMATTR InstName Fuse1
SYMATTR Value 0.085
SYMBOL Misc\\battery 1072 224 R0
WINDOW 123 0 0 Left 0
WINDOW 39 0 0 Left 0
SYMATTR InstName V1
SYMATTR Value 38
SYMBOL res 144 384 R0
SYMATTR InstName R3
SYMATTR Value 390
SYMBOL res 208 384 R0
SYMATTR InstName R4
SYMATTR Value 750
SYMBOL res 272 384 R0
SYMATTR InstName R5
SYMATTR Value 1.5k
SYMBOL res 368 384 R0
SYMATTR InstName R6
SYMATTR Value 2k
SYMBOL res 464 384 R0
SYMATTR InstName R7
SYMATTR Value 4.3k
SYMBOL diode -240 288 R180
WINDOW 0 24 64 Left 2
WINDOW 3 24 0 Left 2
SYMATTR InstName D3
SYMBOL res 560 384 R0
SYMATTR InstName VR2
SYMATTR Value 500
SYMBOL res 464 272 R0
SYMATTR InstName R8
SYMATTR Value 100
SYMBOL res 368 272 R0
SYMATTR InstName R9
SYMATTR Value 100
SYMBOL res 144 272 R0
SYMATTR InstName R10
SYMATTR Value 22
SYMBOL res -528 208 R0
SYMATTR InstName R11
SYMATTR Value 0,1
TEXT -160 472 Left 2 !.tran 100ms
TEXT 136 544 Left 2 ;3.3
TEXT 208 544 Left 2 ;5
TEXT 272 544 Left 2 ;9
TEXT 368 544 Left 2 ;12
TEXT 464 544 Left 2 ;24
TEXT 584 544 Left 2 ;adj
