Version 4
SHEET 1 1060 680
WIRE 112 16 -48 16
WIRE 624 16 176 16
WIRE -432 128 -592 128
WIRE -336 128 -352 128
WIRE -128 128 -336 128
WIRE -48 128 -48 16
WIRE -48 128 -128 128
WIRE 80 128 -48 128
WIRE 528 128 208 128
WIRE 624 128 624 16
WIRE 624 128 528 128
WIRE 704 128 624 128
WIRE 768 128 704 128
WIRE 992 128 768 128
WIRE -592 208 -592 128
WIRE -336 208 -336 128
WIRE -128 208 -128 128
WIRE 144 208 144 176
WIRE 144 208 128 208
WIRE 528 208 144 208
WIRE 704 208 704 192
WIRE 704 208 528 208
WIRE 992 224 992 128
WIRE 128 256 128 208
WIRE 128 256 80 256
WIRE 496 256 128 256
WIRE 704 256 704 208
WIRE -128 304 -128 272
WIRE -592 384 -592 288
WIRE -336 384 -336 272
WIRE -336 384 -592 384
WIRE -128 384 -336 384
WIRE -48 384 -48 192
WIRE -48 384 -128 384
WIRE 80 384 80 352
WIRE 144 384 144 272
WIRE 208 384 208 272
WIRE 304 384 304 352
WIRE 400 384 400 352
WIRE 496 384 496 352
WIRE 704 384 704 320
WIRE 768 384 768 192
WIRE 768 384 704 384
WIRE 992 384 992 304
WIRE 992 384 768 384
WIRE -48 512 -48 384
WIRE 80 512 80 464
WIRE 80 512 -48 512
WIRE 144 512 144 464
WIRE 144 512 80 512
WIRE 208 512 208 464
WIRE 208 512 144 512
WIRE 304 512 304 464
WIRE 304 512 208 512
WIRE 400 512 400 464
WIRE 400 512 304 512
WIRE 496 512 496 464
WIRE 496 512 400 512
WIRE 704 512 704 384
WIRE 704 512 496 512
WIRE 208 560 208 512
FLAG 208 560 0
SYMBOL Misc\\LM317 144 128 R0
SYMATTR InstName U1
SYMBOL diode 176 0 R90
WINDOW 0 0 32 VBottom 2
WINDOW 3 53 30 VBottom 2
SYMATTR InstName D2
SYMATTR Value 1N4007
SYMBOL polcap -64 128 R0
WINDOW 3 24 56 Left 2
SYMATTR Value 0.1µ
SYMATTR InstName C1
SYMATTR Description Capacitor
SYMATTR Type cap
SYMATTR SpiceLine V=50 Irms=0 Rser=11 Lser=0
SYMBOL polcap 752 128 R0
WINDOW 3 43 38 Left 2
SYMATTR Value 1µ
SYMATTR InstName C3
SYMATTR Description Capacitor
SYMATTR Type cap
SYMATTR SpiceLine V=50 Irms=0 Rser=11 Lser=0
SYMBOL polcap 688 256 R0
WINDOW 3 24 56 Left 2
SYMATTR Value 10µ
SYMATTR InstName C2
SYMATTR Description Capacitor
SYMATTR Type cap
SYMATTR SpiceLine V=50 Irms=1.36931 Rser=0.12 Lser=0 mfg="KEMET" pn="T521D106M050ATE120" type="Tantalum"
SYMBOL res 512 112 R0
SYMATTR InstName R10
SYMATTR Value 240
SYMATTR SpiceLine tol=1 pwr=0.25
SYMBOL diode 720 192 R180
WINDOW 0 24 64 Left 2
WINDOW 3 24 36 Left 2
SYMATTR InstName D3
SYMATTR Value 1N4007
SYMBOL res 480 256 R0
SYMATTR InstName VR1
SYMATTR Value 10k
SYMATTR SpiceLine tol=1 pwr=0.25
SYMBOL LED -144 208 R0
SYMATTR InstName LED1
SYMATTR Value ""
SYMATTR Description Diode
SYMATTR Type diode
SYMBOL res -144 288 R0
SYMATTR InstName R1
SYMATTR Value 3.6K
SYMATTR SpiceLine tol=1 pwr=0.1
SYMBOL res -336 112 R90
WINDOW 0 0 56 VBottom 2
WINDOW 3 32 56 VTop 2
SYMATTR InstName Fuse3A
SYMATTR Value 0.085
SYMBOL Misc\\battery -592 192 R0
WINDOW 123 0 0 Left 0
WINDOW 39 0 0 Left 0
SYMATTR InstName V1
SYMATTR Value 38
SYMBOL res 64 368 R0
SYMATTR InstName R3
SYMATTR Value 390
SYMBOL res 128 368 R0
SYMATTR InstName R4
SYMATTR Value 750
SYMBOL res 192 368 R0
SYMATTR InstName R5
SYMATTR Value 1.5k
SYMBOL res 288 368 R0
SYMATTR InstName R7
SYMATTR Value 2k
SYMBOL res 384 368 R0
SYMATTR InstName R6
SYMATTR Value 4.3k
SYMBOL diode -320 272 R180
WINDOW 0 24 64 Left 2
WINDOW 3 24 0 Left 2
SYMATTR InstName D1
SYMBOL res 480 368 R0
SYMATTR InstName VR2
SYMATTR Value 500
SYMBOL res 384 256 R0
SYMATTR InstName R8
SYMATTR Value 100
SYMBOL res 288 256 R0
SYMATTR InstName R6
SYMATTR Value 100
SYMBOL res 64 256 R0
SYMATTR InstName R2
SYMATTR Value 22
TEXT -240 456 Left 2 !.tran 100ms
TEXT 56 528 Left 2 ;3.3
TEXT 128 528 Left 2 ;5
TEXT 192 528 Left 2 ;9
TEXT 288 528 Left 2 ;12
TEXT 384 528 Left 2 ;24
TEXT 504 528 Left 2 ;adj
